/*--------------------------------*- C++ -*----------------------------------*\
  =========                 |
  \\      /  F ield         | OpenFOAM: The Open Source CFD Toolbox
   \\    /   O peration     | Website:  https://openfoam.org
    \\  /    A nd           | Version:  7
     \\/     M anipulation  |
\*---------------------------------------------------------------------------*/
FoamFile
{
    version     2.0;
    format      ascii;
    class       dictionary;
    location    "system";
    object      fvSolution;
}
// * * * * * * * * * * * * * * * * * * * * * * * * * * * * * * * * * * * * * //

solvers
{
    "(rho|rhoU|rhoE)"
    {
        solver          diagonal;
    }
    "(rho|rhoU|rhoE)Final"
    {
        solver          diagonal;
    }

    "(U|e)"
    {
        solver          PBiCGStab;
        preconditioner  DIC;
        tolerance       1e-12;
        relTol          0.1;
    }

    "(U|e)Final"
    {
        $U;
        relTol          0;
    }
    "(Yi)"
	{
        solver          PBiCGStab;
        preconditioner  DILU;
        tolerance       1e-12;
        relTol          0;
	}
	
}

CENTRAL
{
}

// ************************************************************************* //
