/*--------------------------------*- C++ -*----------------------------------*\
  =========                 |
  \\      /  F ield         | OpenFOAM: The Open Source CFD Toolbox
   \\    /   O peration     | Website:  https://openfoam.org
    \\  /    A nd           | Version:  7
     \\/     M anipulation  |
\*---------------------------------------------------------------------------*/
FoamFile
{
    version     2.0;
    format      ascii;
    class       dictionary;
    object      blockMeshDict;
}
// * * * * * * * * * * * * * * * * * * * * * * * * * * * * * * * * * * * * * //

convertToMeters 1;

vertices
(
    (0  0 -0.01)
    (0.05  0 -0.01)
    (0.05  0.001 -0.01)
    (0 0.001 -0.01)
    (0  0  0.01)
    (0.05  0  0.01)
    (0.05  0.001  0.01)
    (0  0.001  0.01)
);

blocks
(
    hex (0 1 2 3 4 5 6 7) (5000 1 1) simpleGrading (1 1 1)
);

edges
(
);

boundary
(
	inlet 
	{
		type patch; 
		faces
		(
            		(0 4 7 3)
		);
	}

	outlet
	{
		type patch;
		faces
		(
		 	(1 2 5 6)
		);
	}
	bottom
	{
		type wall;
		faces
		(
 		           (0 1 5 4)
		);
	}
	top
	{
		type wall;
		faces
		(
          		  (7 6 2 3)
		);
	}

	frontAndBack
	{
		type empty;
		faces
		(
           		   (4 5 6 7)
      			   (0 3 2 1)
		);
	}

);

mergePatchPairs
(
);

// ************************************************************************* //
