/*--------------------------------*- C++ -*----------------------------------*\
  =========                 |
  \\      /  F ield         | OpenFOAM: The Open Source CFD Toolbox
   \\    /   O peration     | Website:  https://openfoam.org
    \\  /    A nd           | Version:  7
     \\/     M anipulation  |
\*---------------------------------------------------------------------------*/
FoamFile
{
    version     2.0;
    format      ascii;
    class       dictionary;
    location    "system";
    object      controlDict;
}
// * * * * * * * * * * * * * * * * * * * * * * * * * * * * * * * * * * * * * //

application     detonationNSFoam_mixtureAverage;

startFrom       latestTime;

startTime       0;

stopAt          endTime;

endTime         0.01;	

deltaT          1e-11;

writeControl    adjustableRunTime;

writeInterval	1e-3;

purgeWrite      0;

writeFormat     ascii;

writePrecision  12;

writeCompression off;

timeFormat      general;

timePrecision   12;

runTimeModifiable true;

adjustTimeStep  yes;

useAcousticCourant yes;

maxCo           0.2;
maxDeltaT		1e-6;
maxAcousticCo	0.2;

libs
(
  "libchemistryModel_DLB.so"
);

functions
{
}

// ************************************************************************* //
