/*---------------------------------------------------------------------------*\
| =========                 |                                                 |
| \\      /  F ield         | OpenFOAM: The Open Source CFD Toolbox           |
|  \\    /   O peration     | Version:  1.0                                   |
|   \\  /    A nd           | Web:      http://www.openfoam.org               |
|    \\/     M anipulation  |                                                 |
\*---------------------------------------------------------------------------*/
FoamFile
{
version                         2.0;
format                          ascii;
class                           dictionary;
object                          speciesMu;
}

// Scheme: transport fitting

H
{
Mu1	-1.988E+01	;
Mu2	3.416E+00	;
Mu3	-3.631E-01	;
Mu4	1.586E-02	;
}
H2
{
Mu1	-1.377E+01	;
Mu2	9.709E-01	;
Mu3	-4.535E-02	;
Mu4	2.096E-03	;
}
O
{
Mu1	-1.482E+01	;
Mu2	1.801E+00	;
Mu3	-1.549E-01	;
Mu4	6.909E-03	;
}
OH
{
Mu1	-1.479E+01	;
Mu2	1.801E+00	;
Mu3	-1.549E-01	;
Mu4	6.909E-03	;
}
H2O
{
Mu1	-1.188E+01	;
Mu2	-7.883E-01	;
Mu3	3.341E-01	;
Mu4	-1.986E-02	;
}
O2
{
Mu1	-1.681E+01	;
Mu2	2.523E+00	;
Mu3	-2.491E-01	;
Mu4	1.101E-02	;
}
HO2
{
Mu1	-1.680E+01	;
Mu2	2.523E+00	;
Mu3	-2.491E-01	;
Mu4	1.101E-02	;
}
H2O2
{
Mu1	-1.678E+01	;
Mu2	2.523E+00	;
Mu3	-2.491E-01	;
Mu4	1.101E-02	;
}
N2
{
Mu1	-1.626E+01	;
Mu2	2.252E+00	;
Mu3	-2.138E-01	;
Mu4	9.478E-03	;
}
