/*--------------------------------*- C++ -*----------------------------------*\
| =========                 |                                                 |
| \\      /  F ield         | OpenFOAM: The Open Source CFD Toolbox           |
|  \\    /   O peration     | Version:  5.0                                   |
|   \\  /    A nd           | Web:      www.OpenFOAM.org                      |
|    \\/     M anipulation  |                                                 |
\*---------------------------------------------------------------------------*/
FoamFile
{
    version     2.0;
    format      ascii;
    class       polyBoundaryMesh;
    location    "constant/polyMesh";
    object      boundary;
}
// * * * * * * * * * * * * * * * * * * * * * * * * * * * * * * * * * * * * * //

3
(
    base
    {
        type            empty;
        inGroups        1(empty);
        nFaces          6000;
        startFace       1499;
    }
    outlet
    {
        type            patch;
        nFaces          1;
        startFace       7499;
    }
    inlet
    {
        type            patch;
        nFaces          1;
        startFace       7500;
    }
)

// ************************************************************************* //
